@<TRIPOS>MOLECULE
*****
 7 6 0 0 0
SMALL
GASTEIGER

@<TRIPOS>ATOM
      1 N          -6.7269    1.6614   -0.2948 N.3     1  LIG1       -0.3327
      2 C          -5.2933    1.8837   -0.1779 C.3     1  LIG1       -0.0188
      3 H          -7.0648    1.2046    0.5831 H       1  LIG1        0.1180
      4 H          -6.8975    1.0034   -1.0894 H       1  LIG1        0.1180
      5 H          -5.0893    2.5686    0.6721 H       1  LIG1        0.0386
      6 H          -4.9096    2.3474   -1.1112 H       1  LIG1        0.0386
      7 H          -4.7679    0.9193   -0.0053 H       1  LIG1        0.0386
@<TRIPOS>BOND
     1     1     2    1
     2     1     3    1
     3     1     4    1
     4     2     5    1
     5     2     6    1
     6     2     7    1
